src/test/resources/ieeefiles/shanghai_ieee.dat
 09/08/06 GE XA21-IEEE FILE    100.00 0    0 06/08/09 10:27:48.801 CST  
BUS DATA FOLLOWS                                                  241 ITEMS
9999 20333.0HD_35 10  1  0 0.9802  -5.43     0.00     0.00     0.00    0.00   36.00 0.0000  0.0000  0.0000  0.0000  0.6000    0    1
9998 20334.0HD_35 10  1  0 0.9885  -5.35     0.00     0.00     0.00    0.00   36.00 0.0000  0.0000  0.0000  0.0000  0.6000    0    2
9997 20335.0HD_35 10  1  0 0.9869  -5.74     0.00     0.00     0.00    0.00   36.00 0.0000  0.0000  0.0000  0.0000  0.6000    0    3
9996 20336.0HD_35 10  1  0 0.9608  -5.49     0.00     0.00     0.00    0.00   36.00 0.0000  0.0000  0.0000  0.0000  0.0000    0    4
9995 20321.0HD_22 10  1  0 0.9867  -4.91   232.22   122.63     0.00    0.00  230.00 0.0000  0.0000  0.0000  0.0000  0.0000    0    5
9994 20393.0HD_LB 10  1  0 0.9596  -5.41     0.00     0.00     0.00    0.00  230.00 0.0000  0.0000  0.0000  0.0000  0.0000    0    6
9993 20394.0HD_LB 10  1  0 0.9600  -5.33     0.00     0.00     0.00    0.00  230.00 0.0000  0.0000  0.0000  0.0000  0.0000    0    7
9992 20395.0HD_LB 10  1  0 0.9582  -5.73     0.00     0.00     0.00    0.00  230.00 0.0000  0.0000  0.0000  0.0000  0.0000    0    8
9991 20396.0HD_LB 10  1  0 0.9608  -5.49     0.00     0.00     0.00    0.00  230.00 0.0000  0.0000  0.0000  0.0000  0.0000    0    9
9990 20300.1HD_50 10  1  2 0.9226  -0.93     0.00     0.00   870.70   16.42  525.00 0.9226 9999.00-9999.00  0.0000  0.0000 9990   10
9989 20300.2HD_50 10  1  2 0.9210  -0.84     0.00     0.00   838.09   77.87  525.00 0.9210 9999.00-9999.00  0.0000  0.0000 9989   11
9988 25121.0XJ_22 10  1  0 0.9767  -6.99   915.03   -89.42     0.00    0.00  230.00 0.0000  0.0000  0.0000  0.0000  0.0000    0   12
9987 25221.1QP_22 10  1  0 0.9737  -6.58   118.00    30.87     0.00    0.00  230.00 0.0000  0.0000  0.0000  0.0000  0.0000    0   13
9986 25221.2QP_22 10  1  0 0.9588 -10.47   113.22    25.31     0.00    0.00  230.00 0.0000  0.0000  0.0000  0.0000  0.0000    0   14
9985 25221.3QP_22 10  1  0 0.9692  -6.96   134.92    41.77     0.00    0.00  230.00 0.0000  0.0000  0.0000  0.0000  0.0000    0   15
9984 25321.1WW_22 10  1  0 0.9849  -5.67   187.23    19.13     0.00    0.00  230.00 0.0000  0.0000  0.0000  0.0000  0.0000    0   16
9983 25321.2WW_22 10  1  0 0.9872  -2.13   100.86    29.89     0.00    0.00  230.00 0.0000  0.0000  0.0000  0.0000  0.0000    0   17
9982 25421.1JD_22 10  1  0 0.9844  -5.53   143.28     4.67     0.00    0.00  230.00 0.0000  0.0000  0.0000  0.0000  0.0000    0   18
9981 25421.2JD_22 10  1  0 0.9602  -5.08   136.14    21.74     0.00    0.00  230.00 0.0000  0.0000  0.0000  0.0000  0.0000    0   19
9980 25521.1LUD_2 10  1  0 0.9768  -7.13    74.74    -9.84     0.00    0.00  230.00 0.0000  0.0000  0.0000  0.0000  0.0000    0   20
9979 25521.2LUD_2 10  1  0 0.9913  -5.18    91.93     6.87     0.00    0.00  230.00 0.0000  0.0000  0.0000  0.0000  0.0000    0   21
9978 25621.1GB_22 10  1  0 0.9745  -7.80   237.61     7.36     0.00    0.00  230.00 0.0000  0.0000  0.0000  0.0000  0.0000    0   22
9977 25621.2GB_22 10  1  0 0.9924  -5.41   117.21    -3.16     0.00    0.00  230.00 0.0000  0.0000  0.0000  0.0000  0.0000    0   23
9976 25921.0YT_22 10  1  0 0.9867  -5.00   129.63   -14.05     0.00    0.00  230.00 0.0000  0.0000  0.0000  0.0000  0.0000    0   24
9975 20032.0YH_35 10  2  0 0.9634  -1.43     0.00     0.00     0.00    0.00   36.00 0.0000  0.0000  0.0000  0.0000  0.0000    0   25
9974 20033.0YH_35 10  2  0 0.9344  -1.52     0.00     0.00     0.00    0.00   36.00 0.0000  0.0000  0.0000  0.0000 -0.9000    0   26
9973 20021.0YH_22 10  2  0 0.9883  -1.23   160.32    14.20     0.00    0.00  230.00 0.0000  0.0000  0.0000  0.0000  0.0000    0   27
9972 20092.0YH_LB 10  2  0 0.9634  -1.43     0.00     0.00     0.00    0.00  230.00 0.0000  0.0000  0.0000  0.0000  0.0000    0   28
9971 20093.0YH_LB 10  2  0 0.9662  -1.56     0.00     0.00     0.00    0.00  230.00 0.0000  0.0000  0.0000  0.0000  0.0000    0   29
9970 20000.0YH_50 10  2  0 0.9319   0.65     0.00     0.00     0.00    0.00  525.00 0.0000  0.0000  0.0000  0.0000  0.0000    0   30
9969 20101.0SDK2_ 10  2  2 0.9740   7.95     0.00     0.00   590.12  100.15   24.00 0.9740  350.08  -70.96  0.0000  0.0000 9969   31
9968 20102.0SDK2_ 10  2  2 0.9762   7.93     0.00     0.00   589.73  111.87   24.00 0.9762  350.33  -71.11  0.0000  0.0000 9968   32
9967 20100.0SDK2_ 10  2  0 0.9333   1.19     0.00     0.00     0.00    0.00  525.00 0.0000  0.0000  0.0000  0.0000  0.0000    0   33
9966 20201.0SDK_2 10  2  2 0.9874   6.86     0.00     0.00   316.53   60.85   18.00 0.9874  185.92   60.92  0.0000  0.0000 9966   34
9965 20202.0SDK_2 10  2  2 0.9891   6.75     0.00     0.00   318.24   67.14   18.00 0.9891  185.92   60.92  0.0000  0.0000 9965   35
9964 20203.0SDK_2 10  2  2 0.9878   5.61     0.00     0.00   269.07   58.92   18.00 0.9878  205.27   54.64  0.0000  0.0000 9964   36
9963 20204.0SDK_2 10  2  2 0.9860   6.13     0.00     0.00   289.09   55.14   18.00 0.9860  192.75   58.70  0.0000  0.0000 9963   37
9962 20221.0SDK_2 10  2  0 0.9934  -0.32    27.08    14.86     0.00    0.00  230.00 0.0000  0.0000  0.0000  0.0000  0.0000    0   38
9961 21100.0XBG_2 10  2  2 1.0138   3.45     0.00     0.00   113.25   43.59   15.00 1.0138   40.00  -40.00  0.0000  0.0000 9961   39
9960 21103.0XBG_2 10  2  2 1.0169   5.18     0.00     0.00   353.24  118.68   23.00 1.0169  100.00 -100.00  0.0000  0.0000 9960   40
9959 21141.0XBG_1 10  2  0 0.9862  -0.84   459.05   124.00     0.00    0.00  115.00 0.0000  0.0000  0.0000  0.0000  0.0000    0   41
9958 21121.0XBG_2 10  2  0 0.9895  -0.95     0.00     0.00     0.00    0.00  230.00 0.0000  0.0000  0.0000  0.0000  0.0000    0   42
9957 21201.0NZ_21 10  2  2 1.0226   7.03     0.00     0.00   351.43  110.57   21.00 1.0226  100.00 -100.00  0.0000  0.0000 9957   43
9956 21202.0NZ_21 10  2  2 1.0202   7.04     0.00     0.00   350.57   94.57   21.00 1.0202  100.00 -100.00  0.0000  0.0000 9956   44
9955 21241.0NZ_11 10  2  0 0.9959   1.20   583.32   109.02     0.00    0.00  115.00 0.0000  0.0000  0.0000  0.0000  0.0000    0   45
9954 21221.0NZ_22 10  2  0 0.9893  -1.05     0.00     0.00     0.00    0.00  230.00 0.0000  0.0000  0.0000  0.0000  0.0000    0   46
9953 21222.0NZ_22 10  2  0 0.9893  -1.05     0.00     0.00     0.00    0.00  230.00 0.0000  0.0000  0.0000  0.0000  0.0000    0   47
9952 21301.0ZB_11 10  2  2 0.9847   2.75     0.00     0.00    78.77   22.67   11.50 0.9847  104.20   11.21  0.0000  0.0000 9952   48
9951 21302.0ZB_11 10  2  2 0.9848   2.75     0.00     0.00    77.01   22.31   11.50 0.9848  105.08   10.96  0.0000  0.0000 9951   49
9950 21303.0ZB_11 10  2  2 0.9855   3.53     0.00     0.00    91.40   24.26   11.50 0.9855   97.87   13.00  0.0000  0.0000 9950   50
9949 21304.0ZB_11 10  2  2 0.9882   3.70     0.00     0.00    94.80   27.55   11.50 0.9882   96.16   13.48  0.0000  0.0000 9949   51
9948 21305.0ZB_11 10  2  2 0.9894   3.62     0.00     0.00    89.70   25.53   11.50 0.9894   87.74   18.31  0.0000  0.0000 9948   52
9947 21306.0ZB_11 10  2  2 0.9753   0.07     0.00     0.00    26.46    8.46   11.50 0.9753  124.32    8.16  0.0000  0.0000 9947   53
9946 21315.0ZB_14 10  2  0 0.9900  -3.58     0.00     0.00     0.00    0.00   13.80 0.0000  0.0000  0.0000  0.0000  0.0000    0   54
9945 21316.0ZB_14 10  2  2 1.0073   3.60     0.00     0.00    98.34   20.13   13.80 1.0073   40.00  -40.00  0.0000  0.0000 9945   55
9944 21321.0ZB_22 10  2  0 0.9911  -1.42   174.76     2.07     0.00    0.00  230.00 0.0000  0.0000  0.0000  0.0000  0.0000    0   56
9943 21395.0ZB_B1 10  2  0 0.9900  -3.58    44.84     1.10     0.00    0.00  230.00 0.0000  0.0000  0.0000  0.0000  0.0000    0   57
9942 21396.0ZB_B1 10  2  0 0.9965   0.50    66.43     9.52     0.00    0.00  230.00 0.0000  0.0000  0.0000  0.0000  0.0000    0   58
9941 21421.0WR_22 10  2  0 0.9888  -1.92   692.57   -43.79     0.00    0.00  230.00 0.0000  0.0000  0.0000  0.0000  0.0000    0   59
9940 21721.1YZB_2 10  2  0 0.9898  -1.44   231.22     6.78     0.00    0.00  230.00 0.0000  0.0000  0.0000  0.0000  0.0000    0   60
9939 21721.2YZB_2 10  2  0 0.9889  -1.92     0.00     0.00     0.00    0.00  230.00 0.0000  0.0000  0.0000  0.0000  0.0000    0   61
9938 21721.3YZB_2 10  2  0 0.9889  -1.92     0.00     0.00     0.00    0.00  230.00 0.0000  0.0000  0.0000  0.0000  0.0000    0   62
9937 21821.0WD_22 10  2  0 0.9910  -1.24    78.78    12.00     0.00    0.00  230.00 0.0000  0.0000  0.0000  0.0000  0.0000    0   63
9936 21921.0GT_22 10  2  0 0.9897  -1.50   138.52    32.87     0.00    0.00  230.00 0.0000  0.0000  0.0000  0.0000  0.0000    0   64
9935 22021.0TH_22 10  2  0 0.9858  -1.67   384.05    66.04     0.00    0.00  230.00 0.0000  0.0000  0.0000  0.0000  0.0000    0   65
9934 22421.1SL_22 10  2  0 0.9906  -1.57   146.92     2.82     0.00    0.00  230.00 0.0000  0.0000  0.0000  0.0000  0.0000    0   66
9933 22421.2SL_22 10  2  0 0.9400  -2.91    66.54    11.87     0.00    0.00  230.00 0.0000  0.0000  0.0000  0.0000  0.0000    0   67
9932 23121.0BN_22 10  2  0 0.9892  -1.06     4.44     1.52     0.00    0.00  230.00 0.0000  0.0000  0.0000  0.0000  0.0000    0   68
9931 11201.0WJ2_2 10  3  2 0.9872   2.31     0.00     0.00   592.53  179.17   20.00 0.9872  295.76  -52.49  0.0000  0.0000 9931   69
9930 11202.0WJ2_2 10  3  2 0.9776   2.47     0.00     0.00   596.42  141.88   20.00 0.9776  293.07  -51.19  0.0000  0.0000 9930   70
9929 11221.0WJ2_2 10  3  0 0.9755  -6.78     0.00     0.00     0.00    0.00  230.00 0.0000  0.0000  0.0000  0.0000  0.0000    0   71
9928 11521.0CS_22 10  3  0 0.9706  -7.78   366.80    84.37     0.00    0.00  230.00 0.0000  0.0000  0.0000  0.0000  0.0000    0   72
9927 11821.0CC_22 10  3  0 0.9693  -8.77   965.21    46.05     0.00    0.00  230.00 0.0000  0.0000  0.0000  0.0000  0.0000    0   73
9926 20431.0SJ_35 10  3  0 0.9444  -8.72     0.00     0.00     0.00    0.00   36.00 0.0000  0.0000  0.0000  0.0000  0.0000    0   74
9925 20432.0SJ_35 10  3  0 0.9727  -8.80     0.00     0.00     0.00    0.00   36.00 0.0000  0.0000  0.0000  0.0000  0.7500    0   75
9923 20434.0SJ_35 10  3  0 0.9728  -8.86     0.00     0.00     0.00    0.00   36.00 0.0000  0.0000  0.0000  0.0000  0.0000    0   77
9922 20421.1SJ_22 10  3  0 0.9707  -7.92   626.12    15.82     0.00    0.00  230.00 0.0000  0.0000  0.0000  0.0000  0.0000    0   78
9920 20491.0SJ_LB 10  3  0 0.9444  -8.72     0.00     0.00     0.00    0.00  230.00 0.0000  0.0000  0.0000  0.0000  0.0000    0   80
9919 20492.0SJ_LB 10  3  0 0.9424  -8.77     0.00     0.00     0.00    0.00  230.00 0.0000  0.0000  0.0000  0.0000  0.0000    0   81
9917 20494.0SJ_LB 10  3  0 0.9728  -8.86     0.00     0.00     0.00    0.00  230.00 0.0000  0.0000  0.0000  0.0000  0.0000    0   83
9916 20400.1SJ_50 10  3  0 0.9173  -2.16     0.00     0.00     0.00    0.00  525.00 0.0000  0.0000  0.0000  0.0000  0.0000    0   84
9914 27221.0GANL_ 10  3  0 0.9641  -9.68   236.07    11.59     0.00    0.00  230.00 0.0000  0.0000  0.0000  0.0000  0.0000    0   86
9913 27321.0WX_22 10  3  0 0.9692  -8.20   161.49    25.36     0.00    0.00  230.00 0.0000  0.0000  0.0000  0.0000  0.0000    0   87
9912 10131.0NQ_35 10  4  0 0.9899  -4.12     0.00     0.00     0.00    0.00   36.00 0.0000  0.0000  0.0000  0.0000  0.0000    0   88
9911 10132.0NQ_35 10  4  0 0.9616  -4.33     0.00     0.00     0.00    0.00   36.00 0.0000  0.0000  0.0000  0.0000  0.0000    0   89
9910 10121.0NQ_22 10  4  0 0.9884  -3.79  -417.92   324.13     0.00    0.00  230.00 0.0000  0.0000  0.0000  0.0000  0.0000    0   90
9909 10191.0NQ_LB 10  4  0 0.9899  -4.12     0.00     0.00     0.00    0.00  230.00 0.0000  0.0000  0.0000  0.0000  0.0000    0   91
9908 10192.0NQ_LB 10  4  0 0.9616  -4.33     0.00     0.00     0.00    0.00  230.00 0.0000  0.0000  0.0000  0.0000  0.0000    0   92
9907 10100.0NQ_50 10  4  3 0.9315   0.00     0.00     0.00  1168.86    2.16  525.00 0.9315  0.0000  0.0000  0.0000  0.0000 9907   93
9906 11003.0WJ_10 10  4  2 0.9935   1.50     0.00     0.00    58.52   16.01   10.50 0.9935   45.74   14.67  0.0000  0.0000 9906   94
9905 11004.0WJ_10 10  4  2 0.9948  -1.80     0.00     0.00    89.83   27.00   10.50 0.9948   40.00  -40.00  0.0000  0.0000 9905   95
9904 11005.0WJ_16 10  4  2 1.0123  -1.69     0.00     0.00   121.85   66.05   15.80 1.0123   60.00  -60.00  0.0000  0.0000 9904   96
9903 11011.0WJ_20 10  4  2 1.0197   0.44     0.00     0.00   294.80  165.86   20.00 1.0197  188.92  -30.87  0.0000  0.0000 9903   97
9902 11012.0WJ_20 10  4  2 1.0190   0.20     0.00     0.00   281.20  162.58   20.00 1.0190  196.90  -33.13  0.0000  0.0000 9902   98
9901 11021.0WJ_22 10  4  0 0.9955  -4.81   378.35    96.70     0.00    0.00  230.00 0.0000  0.0000  0.0000  0.0000  0.0000    0   99
9900 11094.0WJ_B4 10  4  0 0.9953  -1.46    37.96    28.04     0.00    0.00  230.00 0.0000  0.0000  0.0000  0.0000  0.0000    0  100
9899 11095.0WJ_B5 10  4  0 1.0139  -1.46    49.11    44.82     0.00    0.00  230.00 0.0000  0.0000  0.0000  0.0000  0.0000    0  101
9898 11108.0MH_13 10  4  2 1.0160   1.20     0.00     0.00   117.33   52.18   13.80 1.0160   80.87   23.82  0.0000  0.0000 9898  102
9897 11109.0MH_13 10  4  2 1.0149   1.31     0.00     0.00   116.67   56.27   13.80 1.0149   81.56   23.69  0.0000  0.0000 9897  103
9896 11110.0MH_13 10  4  2 1.0206   1.94     0.00     0.00   123.22   60.36   13.80 1.0206   91.99   35.69  0.0000  0.0000 9896  104
9895 11111.0MH_13 10  4  2 1.0218   1.28     0.00     0.00   112.91   61.21   13.80 1.0218   89.24   28.30  0.0000  0.0000 9895  105
9894 11112.0MH_13 10  4  2 1.0243   1.08     0.00     0.00   115.82   63.26   13.80 1.0243   86.40   23.52  0.0000  0.0000 9894  106
9893 11113.0MH_13 10  4  2 0.9839   1.62     0.00     0.00   121.50   48.31   13.80 0.9839   80.87   24.67  0.0000  0.0000 9893  107
9892 11121.0MH_22 10  4  0 0.9930  -4.36   260.38    52.68     0.00    0.00  230.00 0.0000  0.0000  0.0000  0.0000  0.0000    0  108
9891 11192.0MH_B1 10  4  0 1.0250   1.32     0.00     0.00     0.00    0.00  230.00 0.0000  0.0000  0.0000  0.0000  0.0000    0  109
9890 11193.0MH_B1 10  4  0 0.9845   1.85     0.00     0.00     0.00    0.00  230.00 0.0000  0.0000  0.0000  0.0000  0.0000    0  110
9889 11198.0MH_B8 10  4  0 1.0161   1.39     0.00     0.00     0.00    0.00  230.00 0.0000  0.0000  0.0000  0.0000  0.0000    0  111
9888 11199.0MH_B9 10  4  0 1.0152   1.46     0.00     0.00     0.00    0.00  230.00 0.0000  0.0000  0.0000  0.0000  0.0000    0  112
9887 12121.1XHuo_ 10  4  0 0.9800  -5.09   137.37    35.60     0.00    0.00  230.00 0.0000  0.0000  0.0000  0.0000  0.0000    0  113
9886 12121.2XHuo_ 10  4  0 0.9809  -4.98   113.85    28.06     0.00    0.00  230.00 0.0000  0.0000  0.0000  0.0000  0.0000    0  114
9885 12405.0JS_10 10  4  2 1.0081  -2.85     0.00     0.00    39.71   21.02   10.50 1.0081   20.00  -20.00  0.0000  0.0000 9885  115
9883 12421.1JS_22 10  4  0 0.9909  -4.30    66.81     9.04     0.00    0.00  230.00 0.0000  0.0000  0.0000  0.0000  0.0000    0  117
9881 12495.0JS_B5 10  4  0 0.9953  -4.06    21.83     7.86     0.00    0.00  230.00 0.0000  0.0000  0.0000  0.0000  0.0000    0  119
9879 12502.0JSM_1 10  4  2 1.0077  -2.99     0.00     0.00    52.23   29.83    6.30 1.0077   20.00  -20.00  0.0000  0.0000 9879  121
9878 12503.0JSM_1 10  4  2 1.0327   1.60     0.00     0.00    51.81   27.60    6.30 1.0327   20.00  -20.00  0.0000  0.0000 9878  122
9877 12504.0JSM_6 10  4  2 1.0169   0.94     0.00     0.00    50.95   29.32    6.30 1.0169   37.18   12.18  0.0000  0.0000 9877  123
9876 12505.0JSM_1 10  4  2 1.0244  -1.71     0.00     0.00    94.22   39.40   13.80 1.0244   40.00  -40.00  0.0000  0.0000 9876  124
9875 12521.0JSM_2 10  4  0 0.9927  -4.12     0.00     0.00     0.00    0.00  230.00 0.0000  0.0000  0.0000  0.0000  0.0000    0  125
9874 12592.0JSM_B 10  4  0 1.0076  -2.86    38.18    21.56     0.00    0.00  230.00 0.0000  0.0000  0.0000  0.0000  0.0000    0  126
9873 12593.0JSM_B 10  4  0 1.0322   1.70   -14.06     0.95     0.00    0.00  230.00 0.0000  0.0000  0.0000  0.0000  0.0000    0  127
9872 12595.0JSM_B 10  4  0 1.0259  -1.41    47.66     8.33     0.00    0.00  230.00 0.0000  0.0000  0.0000  0.0000  0.0000    0  128
9871 12621.0SH_22 10  4  0 0.9903  -4.30   152.14    78.19     0.00    0.00  230.00 0.0000  0.0000  0.0000  0.0000  0.0000    0  129
9870 12821.0JY_22 10  4  0 0.9906  -4.25   180.98    20.18     0.00    0.00  230.00 0.0000  0.0000  0.0000  0.0000  0.0000    0  130
9869 12921.0JDU_2 10  4  0 0.9928  -5.10   385.17    37.45     0.00    0.00  230.00 0.0000  0.0000  0.0000  0.0000  0.0000    0  131
9868 13021.0MUH_2 10  4  0 0.9920  -4.10   146.40    -9.52     0.00    0.00  230.00 0.0000  0.0000  0.0000  0.0000  0.0000    0  132
9867 13121.0YHE_2 10  4  0 0.9921  -4.10    91.97    17.39     0.00    0.00  230.00 0.0000  0.0000  0.0000  0.0000  0.0000    0  133
9866 13212.0CJR_1 10  4  2 1.0412  -1.99     0.00     0.00    43.84   22.40   11.50 1.0412   96.65    6.25  0.0000  0.0000 9866  134
9864 13211.0CJR_1 10  4  2 1.0513  -0.65     0.00     0.00   216.33  107.15   15.75 1.0513  157.45   34.58  0.0000  0.0000 9864  136
9863 13221.0CJR_1 10  4  0 1.0214  -4.08     0.00     0.00     0.00    0.00   15.75 0.0000  0.0000  0.0000  0.0000  0.0000    0  137
9862 13200.1CJR_2 10  4  0 0.9923  -4.08     3.03     2.85     0.00    0.00  230.00 0.0000  0.0000  0.0000  0.0000  0.0000    0  138
9860 13421.0JHai_ 10  4  0 0.9846  -4.43    69.40     9.68     0.00    0.00  230.00 0.0000  0.0000  0.0000  0.0000  0.0000    0  140
9859 15208.0NS_6G 10  4  2 1.0032  -3.13     0.00     0.00    58.82   15.18    6.30 1.0032   20.00  -20.00  0.0000  0.0000 9859  141
9858 15210.0NS_6G 10  4  2 1.0072  -3.27     0.00     0.00    57.86   21.54    6.30 1.0072   20.00  -20.00  0.0000  0.0000 9858  142
9857 15294.0NS_B4 10  4  0 1.0022  -3.02    25.61     8.50     0.00    0.00  110.00 0.0000  0.0000  0.0000  0.0000  0.0000    0  143
9856 15241.0NS_11 10  4  0 0.9982  -5.52    34.69     5.19     0.00    0.00  115.00 0.0000  0.0000  0.0000  0.0000  0.0000    0  144
9855 15296.0NS_B6 10  4  0 1.0074  -3.00    25.84    11.62     0.00    0.00  115.00 0.0000  0.0000  0.0000  0.0000  0.0000    0  145
9854 16221.1XZ_22 10  4  0 0.9974  -4.62    57.92     5.78     0.00    0.00  230.00 0.0000  0.0000  0.0000  0.0000  0.0000    0  146
9853 16221.2XZ_22 10  4  0 0.9909  -5.46    66.18     6.00     0.00    0.00  230.00 0.0000  0.0000  0.0000  0.0000  0.0000    0  147
9852 16221.3XZ_22 10  4  0 0.9909  -5.32     0.00     0.00     0.00    0.00  230.00 0.0000  0.0000  0.0000  0.0000  0.0000    0  148
9851 16321.0YSI_2 10  4  0 0.9909  -5.32   434.61    39.23     0.00    0.00  230.00 0.0000  0.0000  0.0000  0.0000  0.0000    0  149
9850 16541.1RJ_11 10  4  0 0.9674  -3.79   -49.80   204.87     0.00    0.00  115.00 0.0000  0.0000  0.0000  0.0000  0.0000    0  150
9849 16541.2RJ_11 10  4  0 0.9972  -5.57    16.49   170.50     0.00    0.00  115.00 0.0000  0.0000  0.0000  0.0000  0.0000    0  151
9848 16521.0RJ_22 10  4  0 0.9960  -4.73     0.00     0.00     0.00    0.00  230.00 0.0000  0.0000  0.0000  0.0000  0.0000    0  152
9847 16522.0RJ_22 10  4  0 0.9909  -5.56     0.00     0.00     0.00    0.00  230.00 0.0000  0.0000  0.0000  0.0000  0.0000    0  153
9846 16591.0RJ_B1 10  4  0 1.0965  -5.53   174.96  -217.02     0.00    0.00  230.00 0.0000  0.0000  0.0000  0.0000  0.0000    0  154
9845 16592.0RJ_B2 10  4  0 1.0934  -6.09   108.32  -168.66     0.00    0.00  230.00 0.0000  0.0000  0.0000  0.0000  0.0000    0  155
9844 27021.1SZ_22 10  4  0 0.9669  -8.60   333.70    62.35     0.00    0.00  230.00 0.0000  0.0000  0.0000  0.0000  0.0000    0  156
9843 27021.2SZ_22 10  4  0 0.9901  -4.91   319.43    55.72     0.00    0.00  230.00 0.0000  0.0000  0.0000  0.0000  0.0000    0  157
9842 10231.0YG_15 10  5  0 0.9744  -4.53     0.00     0.00     0.00    0.00   15.80 0.0000  0.0000  0.0000  0.0000  0.0000    0  158
9841 10232.0YG_35 10  5  0 0.9743  -4.54     0.00     0.00     0.00    0.00   36.00 0.0000  0.0000  0.0000  0.0000  0.0000    0  159
9840 10233.0YG_35 10  5  0 0.9743  -4.26     0.00     0.00     0.00    0.00   36.00 0.0000  0.0000  0.0000  0.0000  0.0000    0  160
9839 10234.0YG_35 10  5  0 0.9740  -4.60     0.00     0.00     0.00    0.00   36.00 0.0000  0.0000  0.0000  0.0000  0.0000    0  161
9838 10221.0YG_22 10  5  0 1.0000  -4.04     0.00     0.00     0.00    0.00  230.00 0.0000  0.0000  0.0000  0.0000  0.0000    0  162
9837 10291.0YG_LB 10  5  0 0.9744  -4.53     0.00     0.00     0.00    0.00  230.00 0.0000  0.0000  0.0000  0.0000  0.0000    0  163
9836 10292.0YG_LB 10  5  0 0.9743  -4.54     0.00     0.00     0.00    0.00  230.00 0.0000  0.0000  0.0000  0.0000  0.0000    0  164
9835 10293.0YG_LB 10  5  0 0.9743  -4.26     0.00     0.00     0.00    0.00  230.00 0.0000  0.0000  0.0000  0.0000  0.0000    0  165
9834 10294.0YG_LB 10  5  0 0.9740  -4.60     0.00     0.00     0.00    0.00  230.00 0.0000  0.0000  0.0000  0.0000  0.0000    0  166
9833 10200.0YG_50 10  5  0 0.9309  -0.57     0.00     0.00     0.00    0.00  525.00 0.0000  0.0000  0.0000  0.0000  0.0000    0  167
9832 15621.1YS_22 10  5  0 0.9988  -4.38   323.37    36.94     0.00    0.00  230.00 0.0000  0.0000  0.0000  0.0000  0.0000    0  168
9831 15621.2YS_22 10  5  0 0.9384  -3.37   256.35    11.52     0.00    0.00  230.00 0.0000  0.0000  0.0000  0.0000  0.0000    0  169
9830 16121.0KQ_22 10  5  0 0.9985  -4.63   162.72    20.97     0.00    0.00  230.00 0.0000  0.0000  0.0000  0.0000  0.0000    0  170
9829 16721.0JCH_2 10  5  0 0.9969  -5.16   121.66     5.42     0.00    0.00  230.00 0.0000  0.0000  0.0000  0.0000  0.0000    0  171
9828 17421.0PJ_22 10  5  0 1.0000  -4.12   162.32   -11.56     0.00    0.00  230.00 0.0000  0.0000  0.0000  0.0000  0.0000    0  172
9827 17621.0HN_22 10  5  0 0.9961  -5.34   270.11    78.06     0.00    0.00  230.00 0.0000  0.0000  0.0000  0.0000  0.0000    0  173
9818 17700.1FXR_2 10  5  0 0.9980  -4.99     0.78     2.70     0.00    0.00  230.00 0.0000  0.0000  0.0000  0.0000  0.0000    0  182
9809 17821.0LG_22 10  5  0 0.9975  -5.48    32.88   -16.68     0.00    0.00  230.00 0.0000  0.0000  0.0000  0.0000  0.0000    0  191
9808 10331.0GUL_3 10  6  0 0.9617  -3.02     0.60    -0.03     0.00    0.00   36.00 0.0000  0.0000  0.0000  0.0000  0.6000    0  192
9807 10334.0GUL_3 10  6  0 0.9617  -3.01     0.32     0.03     0.00    0.00   36.00 0.0000  0.0000  0.0000  0.0000  0.6000    0  193
9806 10321.0GUL_2 10  6  0 0.9393  -2.55     0.00     0.00     0.00    0.00  230.00 0.0000  0.0000  0.0000  0.0000  0.0000    0  194
9805 10391.0GUL_L 10  6  0 0.9392  -2.99     0.00     0.00     0.00    0.00  230.00 0.0000  0.0000  0.0000  0.0000  0.0000    0  195
9804 10394.0GUL_L 10  6  0 0.9392  -2.99     0.00     0.00     0.00    0.00  230.00 0.0000  0.0000  0.0000  0.0000  0.0000    0  196
9803 10300.0GUL_5 10  6  0 0.9325   0.16     0.00     0.00     0.00    0.00  525.00 0.0000  0.0000  0.0000  0.0000  0.0000    0  197
9802 10405.0WGQ2_ 10  6  2 0.9634   5.20    30.53    24.58   860.11  118.00   27.00 0.9634  469.92  122.56  0.0000  0.0000 9802  198
9801 10406.0WGQ2_ 10  6  2 0.9883   5.17    29.15    24.58   896.87  118.09   27.00 0.9883  438.56  127.79  0.0000  0.0000 9801  199
9800 10400.0WGQ2_ 10  6  0 0.9331   0.72     0.00     0.00     0.00    0.00  525.00 0.0000  0.0000  0.0000  0.0000  0.0000    0  200
9799 15001.0WGQ_2 10  6  2 0.9391   4.77     0.00     0.00   287.41   67.62   20.00 0.9391  191.69  -32.10  0.0000  0.0000 9799  201
9798 15002.0WGQ_2 10  6  2 0.9384   4.86     0.00     0.00   286.24   65.12   20.00 0.9384  192.22  -32.29  0.0000  0.0000 9798  202
9797 15003.0WGQ_2 10  6  2 0.9353   5.25     0.00     0.00   299.12   58.24   20.00 0.9353  186.32  -30.15  0.0000  0.0000 9797  203
9796 15004.0WGQ_2 10  6  2 0.9348   4.82     0.00     0.00   292.68   57.05   20.00 0.9348  189.27  -31.22  0.0000  0.0000 9796  204
9795 15021.0WGQ_2 10  6  0 0.9407  -2.12    94.36    40.70     0.00    0.00  230.00 0.0000  0.0000  0.0000  0.0000  0.0000    0  205
9794 15101.0YSP_1 10  6  2 0.9602   2.31     0.00     0.00   112.15   34.18   13.80 0.9602   60.00  -60.00  0.0000  0.0000 9794  206
9793 15102.0YSP_1 10  6  2 0.9662   2.80     0.00     0.00   118.21   35.84   13.80 0.9662   60.00  -60.00  0.0000  0.0000 9793  207
9792 15141.1YSP_1 10  6  0 0.9476  -0.19    31.65    16.23     0.00    0.00  110.00 0.0000  0.0000  0.0000  0.0000  0.0000    0  208
9791 15141.2YSP_1 10  6  0 0.9492  -3.65    14.12    -1.03     0.00    0.00  110.00 0.0000  0.0000  0.0000  0.0000  0.0000    0  209
9790 15141.3YSP_1 10  6  0 0.9533   0.24    60.65    18.52     0.00    0.00  110.00 0.0000  0.0000  0.0000  0.0000  0.0000    0  210
9789 15181.0YSP_2 10  6  0 0.9401  -2.85     0.00     0.00     0.00    0.00  230.00 0.0000  0.0000  0.0000  0.0000  0.0000    0  211
9788 15196.0YSP_B 10  6  0 0.9532   0.36    -8.08    -3.62     0.00    0.00  230.00 0.0000  0.0000  0.0000  0.0000  0.0000    0  212
9787 15197.0YSP_B 10  6  0 0.9473  -0.09    24.68     5.14     0.00    0.00  230.00 0.0000  0.0000  0.0000  0.0000  0.0000    0  213
9786 15198.0YSP_B 10  6  0 0.9493  -3.66     2.14    -9.10     0.00    0.00  230.00 0.0000  0.0000  0.0000  0.0000  0.0000    0  214
9785 15321.0ZQ_22 10  6  0 0.9388  -2.81   287.45    44.95     0.00    0.00  230.00 0.0000  0.0000  0.0000  0.0000  0.0000    0  215
9784 15421.1LD_22 10  6  0 0.9998  -4.06    95.18    28.72     0.00    0.00  230.00 0.0000  0.0000  0.0000  0.0000  0.0000    0  216
9783 15421.2LD_22 10  6  0 0.9368  -3.08    94.94    28.08     0.00    0.00  230.00 0.0000  0.0000  0.0000  0.0000  0.0000    0  217
9782 15521.0GD_22 10  6  0 0.9397  -2.42   222.87    15.43     0.00    0.00  230.00 0.0000  0.0000  0.0000  0.0000  0.0000    0  218
9781 15821.1TZ_22 10  6  0 0.9371  -3.01   208.16    44.33     0.00    0.00  230.00 0.0000  0.0000  0.0000  0.0000  0.0000    0  219
9780 15821.2TZ_22 10  6  0 0.9962  -5.35    95.00    10.46     0.00    0.00  230.00 0.0000  0.0000  0.0000  0.0000  0.0000    0  220
9779 16921.0YSH_2 10  6  0 0.9393  -2.87   350.16    18.89     0.00    0.00  230.00 0.0000  0.0000  0.0000  0.0000  0.0000    0  221
9778 17021.1ZW_22 10  6  0 0.9366  -3.12    56.22     6.44     0.00    0.00  230.00 0.0000  0.0000  0.0000  0.0000  0.0000    0  222
9777 17021.2ZW_22 10  6  0 0.9378  -2.99    49.21    14.29     0.00    0.00  230.00 0.0000  0.0000  0.0000  0.0000  0.0000    0  223
9776 17321.0ZouH_ 10  6  0 0.9397  -2.39   108.18    19.49     0.00    0.00  230.00 0.0000  0.0000  0.0000  0.0000  0.0000    0  224
9775 17921.1LSH_2 10  6  0 0.9387  -3.31     1.72     1.07     0.00    0.00  230.00 0.0000  0.0000  0.0000  0.0000  0.0000    0  225
...
-999
BRANCH DATA FOLLOWS                                               339 ITEMS
9995 9988 10  1 2 0  0.001020  0.011380   0.04880   410   490   490    0 0  0.0000    0.00 0.0000 0.00000.00000  0.0000 0.0000     1
9995 9988 10  1 2 0  0.001060  0.011530   0.04994   410   490   490    0 0  0.0000    0.00 0.0000 0.00000.00000  0.0000 0.0000     2
9995 9987 10  1 2 0  0.004350  0.024860   0.04790   270   290   290    0 0  0.0000    0.00 0.0000 0.00000.00000  0.0000 0.0000     3
9995 9985 10  1 2 0  0.004350  0.026600   0.05018   270   290   290    0 0  0.0000    0.00 0.0000 0.00000.00000  0.0000 0.0000     4
9995 9984 10  1 2 0  0.001355  0.011185   0.03688   410   490   490    0 0  0.0000    0.00 0.0000 0.00000.00000  0.0000 0.0000     5
9995 9984 10  1 2 0  0.001355  0.011185   0.03688   410   490   490    0 0  0.0000    0.00 0.0000 0.00000.00000  0.0000 0.0000     6
9995 9982 10  1 2 0  0.001310  0.007350   0.01386   410   490   490    0 0  0.0000    0.00 0.0000 0.00000.00000  0.0000 0.0000     7
9995 9976 10  1 3 0  0.000220  0.002500   0.02316   410   490   490    0 0  0.0000    0.00 0.0000 0.00000.00000  0.0000 0.0000     8
9995 9976 10  1 3 0  0.000220  0.002550   0.02376   410   490   490    0 0  0.0000    0.00 0.0000 0.00000.00000  0.0000 0.0000     9
9989 9916 10  1 0 0  0.000184  0.002355   0.27176  2000  2000  2000    0 0  0.0000    0.00 0.0000 0.00000.00000  0.0000 0.0000    10
9990 9916 10  1 0 0  0.000173  0.002347   0.27522  2000  2000  2000    0 0  0.0000    0.00 0.0000 0.00000.00000  0.0000 0.0000    11
9990 9768 10  1 1 0  0.000210  0.002210   0.26396  2000  2000  2000    0 0  0.0000    0.00 0.0000 0.00000.00000  0.0000 0.0000    12
9990 9768 10  1 1 0  0.000190  0.002220   0.26830  2000  2000  2000    0 0  0.0000    0.00 0.0000 0.00000.00000  0.0000 0.0000    13
9986 9914 10  1 3 0  0.001928  0.011707   0.02255   270   290   290    0 0  0.0000    0.00 0.0000 0.00000.00000  0.0000 0.0000    14
9983 9941 10  1 3 0  0.001040  0.007561   0.02483   410   490   490    0 0  0.0000    0.00 0.0000 0.00000.00000  0.0000 0.0000    15
9983 9941 10  1 3 0  0.001040  0.007561   0.02483   410   490   490    0 0  0.0000    0.00 0.0000 0.00000.00000  0.0000 0.0000    16
9980 9988 10  1 2 0  0.000350  0.003040   0.01266   270   290   290    0 0  0.0000    0.00 0.0000 0.00000.00000  0.0000 0.0000    17
9979 9892 10  1 1 0  0.001147  0.015293   0.06104   680   680   680    0 0  0.0000    0.00 0.0000 0.00000.00000  0.0000 0.0000    18
9978 9988 10  1 2 0  0.000690  0.005670   0.00000   270   290   290    0 0  0.0000    0.00 0.0000 0.00000.00000  0.0000 0.0000    19
9977 9892 10  1 1 0  0.001238  0.015236   0.06154   710   850   850    0 0  0.0000    0.00 0.0000 0.00000.00000  0.0000 0.0000    20
9973 9940 10  2 2 0  0.000500  0.004670   0.02206   410   410   410    0 0  0.0000    0.00 0.0000 0.00000.00000  0.0000 0.0000    21
9973 9935 10  2 9 0  0.000561  0.003762   0.01625   410   410   410    0 0  0.0000    0.00 0.0000 0.00000.00000  0.0000 0.0000    22
9973 9935 10  2 9 0  0.000578  0.004291   0.02550  2000  2000  2000    0 0  0.0000    0.00 0.0000 0.00000.00000  0.0000 0.0000    23
9967 9970 10  2 0 0  0.000130  0.001380   0.16184  2400  2500  2500    0 0  0.0000    0.00 0.0000 0.00000.00000  0.0000 0.0000    24
9967 9970 10  2 0 0  0.000130  0.001410   0.17482  2000  2000  2000    0 0  0.0000    0.00 0.0000 0.00000.00000  0.0000 0.0000    25
9962 9973 10  2 3 0  0.000888  0.006238   0.02432   420   420   420    0 0  0.0000    0.00 0.0000 0.00000.00000  0.0000 0.0000    26
9962 9958 10  2 3 0  0.001285  0.007713   0.02310   420   420   420    0 0  0.0000    0.00 0.0000 0.00000.00000  0.0000 0.0000    27
9962 9941 10  2 3 0  0.002053  0.013062   0.04418   410   420   420    0 0  0.0000    0.00 0.0000 0.00000.00000  0.0000 0.0000    28
9962 9941 10  2 3 0  0.002053  0.013062   0.04418   410   420   420    0 0  0.0000    0.00 0.0000 0.00000.00000  0.0000 0.0000    29
9962 9941 10  2 3 0  0.001947  0.012911   0.04418   410   420   420    0 0  0.0000    0.00 0.0000 0.00000.00000  0.0000 0.0000    30
9962 9937 10  2 3 0  0.001850  0.012780   0.03050   270   290   290    0 0  0.0000    0.00 0.0000 0.00000.00000  0.0000 0.0000    31
9958 9973 10  2 9 0  0.000711  0.005868   0.02260   410   410   410    0 0  0.0000    0.00 0.0000 0.00000.00000  0.0000 0.0000    32
9944 9940 10  2 0 0  0.001276  0.003716   0.15045   190   190   190    0 0  0.0000    0.00 0.0000 0.00000.00000  0.0000 0.0000    33
9944 9940 10  2 6 0  0.000359  0.002077   0.34032   190   190   190    0 0  0.0000    0.00 0.0000 0.00000.00000  0.0000 0.0000    34
9944 9936 10  2 1 0  0.000762  0.002180   0.15172   190   190   190    0 0  0.0000    0.00 0.0000 0.00000.00000  0.0000 0.0000    35
9944 9934 10  2 6 0  0.000740  0.003610   0.05380   190   190   190    0 0  0.0000    0.00 0.0000 0.00000.00000  0.0000 0.0000    36
9944 9934 10  2 7 0  0.000740  0.003610   0.06504   190   190   190    0 0  0.0000    0.00 0.0000 0.00000.00000  0.0000 0.0000    37
9941 9973 10  2 9 0  0.000781  0.007164   0.02443   410   490   490    0 0  0.0000    0.00 0.0000 0.00000.00000  0.0000 0.0000    38
9941 9939 10  2 1 0  0.001285  0.007561   0.01430   270   290   290    0 0  0.0000    0.00 0.0000 0.00000.00000  0.0000 0.0000    39
9941 9938 10  2 1 0  0.001255  0.007694   0.01423   270   290   290    0 0  0.0000    0.00 0.0000 0.00000.00000  0.0000 0.0000    40
9940 9973 10  2 9 0  0.000580  0.005100   0.02069   410   490   490    0 0  0.0000    0.00 0.0000 0.00000.00000  0.0000 0.0000    41
9940 9973 10  2 9 0  0.000576  0.005123   0.01877   410   490   490    0 0  0.0000    0.00 0.0000 0.00000.00000  0.0000 0.0000    42
9940 9937 10  2 0 0  0.004329  0.006767   0.01547   270   290   290    0 0  0.0000    0.00 0.0000 0.00000.00000  0.0000 0.0000    43
9940 9936 10  2 1 0  0.000274  0.001429   0.00274   270   290   290    0 0  0.0000    0.00 0.0000 0.00000.00000  0.0000 0.0000    44
9933 9789 10  2 6 0  0.000201  0.001516   0.40842   190   190   190    0 0  0.0000    0.00 0.0000 0.00000.00000  0.0000 0.0000    45
9932 9973 10  2 2 0  0.000360  0.003250   0.01626   410   410   410    0 0  0.0000    0.00 0.0000 0.00000.00000  0.0000 0.0000    46
9932 9973 10  2 2 0  0.000430  0.003360   0.01224   410   410   410    0 0  0.0000    0.00 0.0000 0.00000.00000  0.0000 0.0000    47
9932 9958 10  2 0 0  0.000360  0.002740   0.00938   410   410   410    0 0  0.0000    0.00 0.0000 0.00000.00000  0.0000 0.0000    48
9932 9954 10  2 9 0  0.000090  0.000260   0.09286   410   490   490    0 0  0.0000    0.00 0.0000 0.00000.00000  0.0000 0.0000    49
9932 9953 10  2 9 0  0.000080  0.000250   0.09402   410   490   490    0 0  0.0000    0.00 0.0000 0.00000.00000  0.0000 0.0000    50
9929 9928 10  3 0 0  0.000957  0.007516   0.02827   480   580   580    0 0  0.0000    0.00 0.0000 0.00000.00000  0.0000 0.0000    51
9929 9928 10  3 0 0  0.000941  0.007505   0.02809   480   580   580    0 0  0.0000    0.00 0.0000 0.00000.00000  0.0000 0.0000    52
9929 9927 10  3 0 0  0.001340  0.007796   0.07000   680   680   680    0 0  0.0000    0.00 0.0000 0.00000.00000  0.0000 0.0000    53
9929 9927 10  3 0 0  0.000718  0.010491   0.04237   680   680   680    0 0  0.0000    0.00 0.0000 0.00000.00000  0.0000 0.0000    54
9928 9922 10  3 1 0  0.000609  0.005991   0.02422   480   580   580    0 0  0.0000    0.00 0.0000 0.00000.00000  0.0000 0.0000    55
9928 9922 10  3 1 0  0.000609  0.006002   0.02426   480   580   580    0 0  0.0000    0.00 0.0000 0.00000.00000  0.0000 0.0000    56
9927 9922 10  3 2 0  0.001172  0.012146   0.04198   680   680   680    0 0  0.0000    0.00 0.0000 0.00000.00000  0.0000 0.0000    57
9927 9922 10  3 2 0  0.001189  0.012060   0.24132   680   680   680    0 0  0.0000    0.00 0.0000 0.00000.00000  0.0000 0.0000    58
9922 9913 10  3 1 0  0.000980  0.005670   0.03128   410   490   490    0 0  0.0000    0.00 0.0000 0.00000.00000  0.0000 0.0000    59
9922 9913 10  3 1 0  0.000970  0.005880   0.02984   410   490   490    0 0  0.0000    0.00 0.0000 0.00000.00000  0.0000 0.0000    60
9914 9922 10  3 1 0  0.001960  0.016957   0.06272   480   580   580    0 0  0.0000    0.00 0.0000 0.00000.00000  0.0000 0.0000    61
9914 9922 10  3 1 0  0.001890  0.016212   0.06330   480   580   580    0 0  0.0000    0.00 0.0000 0.00000.00000  0.0000 0.0000    62
9910 9892 10  4 0 0  0.000633  0.005206   0.01498   440   510   510    0 0  0.0000    0.00 0.0000 0.00000.00000  0.0000 0.0000    63
9910 9892 10  4 0 0  0.000631  0.005282   0.01513   440   510   510    0 0  0.0000    0.00 0.0000 0.00000.00000  0.0000 0.0000    64
9910 9870 10  4 0 0  0.001229  0.014083   0.05925   270   290   290    0 0  0.0000    0.00 0.0000 0.00000.00000  0.0000 0.0000    65
9910 9870 10  4 0 0  0.001323  0.014159   0.05932   270   290   290    0 0  0.0000    0.00 0.0000 0.00000.00000  0.0000 0.0000    66
9910 9860 10  4 0 0  0.000760  0.006990   0.02900   410   490   490    0 0  0.0000    0.00 0.0000 0.00000.00000  0.0000 0.0000    67
9910 9860 10  4 0 0  0.000820  0.007080   0.02990   410   490   490    0 0  0.0000    0.00 0.0000 0.00000.00000  0.0000 0.0000    68
9910 9851 10  4 1 0  0.001871  0.014934   0.05138   410   490   490    0 0  0.0000    0.00 0.0000 0.00000.00000  0.0000 0.0000    69
9910 9851 10  4 1 0  0.001909  0.015236   0.05097   410   490   490    0 0  0.0000    0.00 0.0000 0.00000.00000  0.0000 0.0000    70
9907 9833 10  4 0 0  0.000301  0.004376   0.52224  2000  2000  2000    0 0  0.0000    0.00 0.0000 0.00000.00000  0.0000 0.0000    71
9907 9833 10  4 0 0  0.000316  0.004644   0.52649  2000  2000  2000    0 0  0.0000    0.00 0.0000 0.00000.00000  0.0000 0.0000    72
9901 9892 10  4 8 0  0.001832  0.010510   0.03285   270   290   290    0 0  0.0000    0.00 0.0000 0.00000.00000  0.0000 0.0000    73
9901 9869 10  4 9 0  0.000843  0.005614   0.01171   270   290   290    0 0  0.0000    0.00 0.0000 0.00000.00000  0.0000 0.0000    74
9901 9869 10  4 9 0  0.000911  0.005671   0.01097   270   290   290    0 0  0.0000    0.00 0.0000 0.00000.00000  0.0000 0.0000    75
9901 9851 10  4 0 0  0.001499  0.009168   0.01781   360   360   360    0 0  0.0000    0.00 0.0000 0.00000.00000  0.0000 0.0000    76
9901 9851 10  4 9 0  0.000887  0.005983   0.02906   360   360   360    0 0  0.0000    0.00 0.0000 0.00000.00000  0.0000 0.0000    77
9892 9869 10  4 8 0  0.002042  0.012533   0.02293   270   290   290    0 0  0.0000    0.00 0.0000 0.00000.00000  0.0000 0.0000    78
9892 9869 10  4 8 0  0.002136  0.012476   0.02602   270   290   290    0 0  0.0000    0.00 0.0000 0.00000.00000  0.0000 0.0000    79
9892 9843 10  4 8 0  0.000750  0.006040   0.02048   410   490   490    0 0  0.0000    0.00 0.0000 0.00000.00000  0.0000 0.0000    80
9892 9843 10  4 8 0  0.000773  0.006023   0.02033   410   490   490    0 0  0.0000    0.00 0.0000 0.00000.00000  0.0000 0.0000    81
9883 9875 10  4 5 0  0.001691  0.008800   0.02765   190   190   190    0 0  0.0000    0.00 0.0000 0.00000.00000  0.0000 0.0000    82
9883 9871 10  4 5 0  0.001319  0.007323   0.01392   270   320   320    0 0  0.0000    0.00 0.0000 0.00000.00000  0.0000 0.0000    83
9883 9870 10  4 1 0  0.000877  0.004563   0.00937   270   290   290    0 0  0.0000    0.00 0.0000 0.00000.00000  0.0000 0.0000    84
9875 9871 10  4 5 0  0.000964  0.004991   0.00988   270   320   320    0 0  0.0000    0.00 0.0000 0.00000.00000  0.0000 0.0000    85
9875 9871 10  4 5 0  0.000960  0.005095   0.00988   270   320   320    0 0  0.0000    0.00 0.0000 0.00000.00000  0.0000 0.0000    86
9870 9871 10  4 8 0  0.001690  0.009320   0.00020   410   490   490    0 0  0.0000    0.00 0.0000 0.00000.00000  0.0000 0.0000    87
9870 9867 10  4 7 0  0.000450  0.005460   0.02302   410   490   490    0 0  0.0000    0.00 0.0000 0.00000.00000  0.0000 0.0000    88
9870 9867 10  4 7 0  0.000450  0.005460   0.02330   410   490   490    0 0  0.0000    0.00 0.0000 0.00000.00000  0.0000 0.0000    89
9868 9910 10  4 0 0  0.001200  0.012610   0.04982   420   490   490    0 0  0.0000    0.00 0.0000 0.00000.00000  0.0000 0.0000    90
9868 9910 10  4 0 0  0.001210  0.012630   0.05308   420   490   490    0 0  0.0000    0.00 0.0000 0.00000.00000  0.0000 0.0000    91
9868 9867 10  4 7 0  0.000160  0.001630   0.00680   410   490   490    0 0  0.0000    0.00 0.0000 0.00000.00000  0.0000 0.0000    92
9868 9867 10  4 7 0  0.000160  0.001600   0.00680   410   490   490    0 0  0.0000    0.00 0.0000 0.00000.00000  0.0000 0.0000    93
9868 9862 10  4 7 0  0.000120  0.001150   0.00518   410   490   490    0 0  0.0000    0.00 0.0000 0.00000.00000  0.0000 0.0000    94
9868 9862 10  4 7 0  0.000120  0.001170   0.00514   410   490   490    0 0  0.0000    0.00 0.0000 0.00000.00000  0.0000 0.0000    95
9862 9867 10  4 7 0  0.000070  0.000470   0.00198   410   490   490    0 0  0.0000    0.00 0.0000 0.00000.00000  0.0000 0.0000    96
9862 9867 10  4 7 0  0.000060  0.000450   0.00202   410   490   490    0 0  0.0000    0.00 0.0000 0.00000.00000  0.0000 0.0000    97
9860 9887 10  4 7 0  0.001180  0.008300   0.02226   410   490   490    0 0  0.0000    0.00 0.0000 0.00000.00000  0.0000 0.0000    98
9860 9886 10  4 8 0  0.001180  0.008300   0.02226   410   490   490    0 0  0.0000    0.00 0.0000 0.00000.00000  0.0000 0.0000    99
9856 9849 10  4 2 0  0.004030  0.005490   0.05486   100   100   100    0 0  0.0000    0.00 0.0000 0.00000.00000  0.0000 0.0000   100
9856 9849 10  4 7 0  0.001370  0.008660   0.05486   100   100   100    0 0  0.0000    0.00 0.0000 0.00000.00000  0.0000 0.0000   101
9854 9848 10  4 2 0  0.001100  0.001520   0.26940   190   190   190    0 0  0.0000    0.00 0.0000 0.00000.00000  0.0000 0.0000   102
9853 9847 10  4 2 0  0.000290  0.001750   0.27678   190   190   190    0 0  0.0000    0.00 0.0000 0.00000.00000  0.0000 0.0000   103
9854 9838 10  4 4 0  0.003431  0.011664   0.02178   270   290   290    0 0  0.0000    0.00 0.0000 0.00000.00000  0.0000 0.0000   104
9854 9838 10  4 4 0  0.002597  0.010503   0.02178   270   290   290    0 0  0.0000    0.00 0.0000 0.00000.00000  0.0000 0.0000   105
9851 9853 10  4 1 0  0.000340  0.002620   0.01353   410   490   490    0 0  0.0000    0.00 0.0000 0.00000.00000  0.0000 0.0000   106
9851 9852 10  4 1 0  0.000363  0.003176   0.01035   410   490   490    0 0  0.0000    0.00 0.0000 0.00000.00000  0.0000 0.0000   107
9851 9853 10  4 1 0  0.000338  0.003113   0.01010   410   490   490    0 0  0.0000    0.00 0.0000 0.00000.00000  0.0000 0.0000   108
9844 9922 10  4 1 0  0.000898  0.006779   0.02377   480   580   580    0 0  0.0000    0.00 0.0000 0.00000.00000  0.0000 0.0000   109
9844 9922 10  4 1 0  0.000938  0.006822   0.02576   480   580   580    0 0  0.0000    0.00 0.0000 0.00000.00000  0.0000 0.0000   110
9838 9830 10  5 4 0  0.000586  0.005142   0.01589   410   490   490    0 0  0.0000    0.00 0.0000 0.00000.00000  0.0000 0.0000   111
9838 9830 10  5 4 0  0.000599  0.005009   0.01589   410   490   490    0 0  0.0000    0.00 0.0000 0.00000.00000  0.0000 0.0000   112
9838 9829 10  5 5 0  0.001890  0.014180   0.09962   410   490   490    0 0  0.0000    0.00 0.0000 0.00000.00000  0.0000 0.0000   113
9838 9829 10  5 5 0  0.001970  0.014090   0.10466   410   490   490    0 0  0.0000    0.00 0.0000 0.00000.00000  0.0000 0.0000   114
9838 9828 10  5 4 0  0.000270  0.001780   0.04718   410   490   490    0 0  0.0000    0.00 0.0000 0.00000.00000  0.0000 0.0000   115
9838 9828 10  5 4 0  0.000230  0.001930   0.09662   410   490   490    0 0  0.0000    0.00 0.0000 0.00000.00000  0.0000 0.0000   116
9838 9784 10  5 5 0  0.000110  0.000807   0.00282   410   490   490    0 0  0.0000    0.00 0.0000 0.00000.00000  0.0000 0.0000   117
9838 9784 10  5 5 0  0.000104  0.000828   0.00282   410   490   490    0 0  0.0000    0.00 0.0000 0.00000.00000  0.0000 0.0000   118
9838 9774 10  5 4 0  0.000350  0.003010   0.01244   410   490   490    0 0  0.0000    0.00 0.0000 0.00000.00000  0.0000 0.0000   119
9838 9774 10  5 4 0  0.000370  0.003010   0.01260   410   490   490    0 0  0.0000    0.00 0.0000 0.00000.00000  0.0000 0.0000   120
9833 9803 10  5 2 0  0.000171  0.002101   0.24752  2000  2000  2000    0 0  0.0000    0.00 0.0000 0.00000.00000  0.0000 0.0000   121
9833 9803 10  5 3 0  0.000174  0.002068   0.24146  2000  2000  2000    0 0  0.0000    0.00 0.0000 0.00000.00000  0.0000 0.0000   122
9830 9818 10  5 8 0  0.001370  0.016110   0.15100   410   490   490    0 0  0.0000    0.00 0.0000 0.00000.00000  0.0000 0.0000   123
9830 9818 10  5 8 0  0.001500  0.016230   0.14218   410   490   490    0 0  0.0000    0.00 0.0000 0.00000.00000  0.0000 0.0000   124
9829 9780 10  5 5 0  0.000985  0.006832   0.02593   410   490   490    0 0  0.0000    0.00 0.0000 0.00000.00000  0.0000 0.0000   125
9829 9780 10  5 5 0  0.000932  0.006913   0.02593   410   490   490    0 0  0.0000    0.00 0.0000 0.00000.00000  0.0000 0.0000   126
9827 9830 10  5 9 0  0.001943  0.015028   0.05809   480   580   580    0 0  0.0000    0.00 0.0000 0.00000.00000  0.0000 0.0000   127
9827 9830 10  5 9 0  0.001966  0.015104   0.05733   410   490   490    0 0  0.0000    0.00 0.0000 0.00000.00000  0.0000 0.0000   128
9827 9829 10  5 9 0  0.001512  0.010662   0.04177   410   490   490    0 0  0.0000    0.00 0.0000 0.00000.00000  0.0000 0.0000   129
9827 9829 10  5 9 0  0.001469  0.010643   0.04070   410   490   490    0 0  0.0000    0.00 0.0000 0.00000.00000  0.0000 0.0000   130
9827 9818 10  5 9 0  0.001490  0.016160   0.06802   410   490   490    0 0  0.0000    0.00 0.0000 0.00000.00000  0.0000 0.0000   131
9827 9818 10  5 9 0  0.001570  0.016280   0.06801   410   490   490    0 0  0.0000    0.00 0.0000 0.00000.00000  0.0000 0.0000   132
9827 9809 10  5 9 0  0.001320  0.014060   0.06058   410   490   490    0 0  0.0000    0.00 0.0000 0.00000.00000  0.0000 0.0000   133
9827 9809 10  5 9 0  0.001320  0.014100   0.06082   410   490   490    0 0  0.0000    0.00 0.0000 0.00000.00000  0.0000 0.0000   134
9806 9785 10  6 5 0  0.000312  0.003257   0.01703  2000  2000  2000    0 0  0.0000    0.00 0.0000 0.00000.00000  0.0000 0.0000   135
9806 9785 10  6 6 0  0.000312  0.003251   0.01684  2000  2000  2000    0 0  0.0000    0.00 0.0000 0.00000.00000  0.0000 0.0000   136
9806 9785 10  6 5 0  0.000740  0.006330   0.02519  2000  2000  2000    0 0  0.0000    0.00 0.0000 0.00000.00000  0.0000 0.0000   137
9806 9785 10  6 6 0  0.000700  0.006180   0.02517  2000  2000  2000    0 0  0.0000    0.00 0.0000 0.00000.00000  0.0000 0.0000   138
9806 9783 10  6 6 0  0.001512  0.010926   0.04207  2000  2000  2000    0 0  0.0000    0.00 0.0000 0.00000.00000  0.0000 0.0000   139
9806 9783 10  6 6 0  0.001484  0.010945   0.04179  2000  2000  2000    0 0  0.0000    0.00 0.0000 0.00000.00000  0.0000 0.0000   140
9806 9782 10  6 6 0  0.000480  0.005260   0.02408  2000  2000  2000    0 0  0.0000    0.00 0.0000 0.00000.00000  0.0000 0.0000   141
9806 9782 10  6 6 0  0.000450  0.005220   0.02246  2000  2000  2000    0 0  0.0000    0.00 0.0000 0.00000.00000  0.0000 0.0000   142
9806 9781 10  6 5 0  0.000633  0.006862   0.03108  2000  2000  2000    0 0  0.0000    0.00 0.0000 0.00000.00000  0.0000 0.0000   143
9806 9781 10  6 5 0  0.000607  0.006896   0.03074  2000  2000  2000    0 0  0.0000    0.00 0.0000 0.00000.00000  0.0000 0.0000   144
9806 9776 10  6 5 0  0.000320  0.002840   0.01930   410   490   490    0 0  0.0000    0.00 0.0000 0.00000.00000  0.0000 0.0000   145
9806 9776 10  6 6 0  0.000310  0.002830   0.01904   410   490   490    0 0  0.0000    0.00 0.0000 0.00000.00000  0.0000 0.0000   146
9806 9775 10  6 6 0  0.000710  0.009050   0.04186  2000  2000  2000    0 0  0.0000    0.00 0.0000 0.00000.00000  0.0000 0.0000   147
9806 9775 10  6 6 0  0.000740  0.009050   0.04114  2000  2000  2000    0 0  0.0000    0.00 0.0000 0.00000.00000  0.0000 0.0000   148
9800 9970 10  6 0 0  0.000200  0.002220   0.26570  2000  2000  2000    0 0  0.0000    0.00 0.0000 0.00000.00000  0.0000 0.0000   149
9800 9970 10  6 1 0  0.000200  0.002240   0.26916  2000  2000  2000    0 0  0.0000    0.00 0.0000 0.00000.00000  0.0000 0.0000   150
9800 9803 10  6 1 0  0.000083  0.001034   0.12290  2000  2000  2000    0 0  0.0000    0.00 0.0000 0.00000.00000  0.0000 0.0000   151
9800 9803 10  6 2 0  0.000089  0.001063   0.11943  2000  2000  2000    0 0  0.0000    0.00 0.0000 0.00000.00000  0.0000 0.0000   152
9795 9806 10  6 6 0  0.000640  0.006050   0.02452   410   490   490    0 0  0.0000    0.00 0.0000 0.00000.00000  0.0000 0.0000   153
9795 9806 10  6 6 0  0.000760  0.005820   0.02310   410   490   490    0 0  0.0000    0.00 0.0000 0.00000.00000  0.0000 0.0000   154
9795 9782 10  6 6 0  0.000414  0.003308   0.01075   420   510   510    0 0  0.0000    0.00 0.0000 0.00000.00000  0.0000 0.0000   155
9795 9782 10  6 6 0  0.000391  0.003204   0.01075   480   580   580    0 0  0.0000    0.00 0.0000 0.00000.00000  0.0000 0.0000   156
9795 9779 10  6 6 0  0.000950  0.008730   0.03445   410   490   490    0 0  0.0000    0.00 0.0000 0.00000.00000  0.0000 0.0000   157
9795 9779 10  6 6 0  0.000940  0.008770   0.03431   410   490   490    0 0  0.0000    0.00 0.0000 0.00000.00000  0.0000 0.0000   158
9795 9776 10  6 6 0  0.000470  0.003070   0.02242   410   490   490    0 0  0.0000    0.00 0.0000 0.00000.00000  0.0000 0.0000   159
9795 9776 10  6 7 0  0.000450  0.003150   0.02338  2000  2000  2000    0 0  0.0000    0.00 0.0000 0.00000.00000  0.0000 0.0000   160
9789 9779 10  6 8 0  0.000540  0.002570   0.00371   190   190   190    0 0  0.0000    0.00 0.0000 0.00000.00000  0.0000 0.0000   161
9789 9779 10  6 8 0  0.000550  0.002580   0.00371   190   190   190    0 0  0.0000    0.00 0.0000 0.00000.00000  0.0000 0.0000   162
9785 9779 10  6 6 0  0.000354  0.003459   0.01404  2000  2000  2000    0 0  0.0000    0.00 0.0000 0.00000.00000  0.0000 0.0000   163
9785 9779 10  6 6 0  0.000333  0.003374   0.01518  2000  2000  2000    0 0  0.0000    0.00 0.0000 0.00000.00000  0.0000 0.0000   164
9785 9777 10  6 7 0  0.000730  0.005650   0.10514   300   300   300    0 0  0.0000    0.00 0.0000 0.00000.00000  0.0000 0.0000   165
9783 9778 10  6 7 0  0.000208  0.001178   0.09518   300   300   300    0 0  0.0000    0.00 0.0000 0.00000.00000  0.0000 0.0000   166
9775 9831 10  6 4 0  0.000160  0.000700   0.09900   410   490   490    0 0  0.0000    0.00 0.0000 0.00000.00000  0.0000 0.0000   167
9775 9831 10  6 4 0  0.000160  0.000700   0.09900   410   490   490    0 0  0.0000    0.00 0.0000 0.00000.00000  0.0000 0.0000   168
9774 9832 10  6 4 0  0.000160  0.000710   0.10032   410   490   490    0 0  0.0000    0.00 0.0000 0.00000.00000  0.0000 0.0000   169
9774 9832 10  6 4 0  0.000160  0.000710   0.10032   410   490   490    0 0  0.0000    0.00 0.0000 0.00000.00000  0.0000 0.0000   170
9771 9988 10  7 0 0  0.001490  0.015250   0.11478   410   490   490    0 0  0.0000    0.00 0.0000 0.00000.00000  0.0000 0.0000   171
9771 9988 10  7 0 0  0.001420  0.015270   0.12158   410   490   490    0 0  0.0000    0.00 0.0000 0.00000.00000  0.0000 0.0000   172
9771 9762 10  7 1 0  0.000210  0.001340   0.00534   410   490   490    0 0  0.0000    0.00 0.0000 0.00000.00000  0.0000 0.0000   173
9771 9762 10  7 1 0  0.000200  0.001340   0.00540   410   490   490    0 0  0.0000    0.00 0.0000 0.00000.00000  0.0000 0.0000   174
9771 9761 10  7 3 0  0.000400  0.003860   0.03200   410   490   490    0 0  0.0000    0.00 0.0000 0.00000.00000  0.0000 0.0000   175
9771 9761 10  7 4 0  0.000400  0.003880   0.03132   410   490   490    0 0  0.0000    0.00 0.0000 0.00000.00000  0.0000 0.0000   176
9771 9759 10  7 0 0  0.000480  0.005610   0.04684   410   490   490    0 0  0.0000    0.00 0.0000 0.00000.00000  0.0000 0.0000   177
9771 9759 10  7 1 0  0.000540  0.005790   0.04552   410   490   490    0 0  0.0000    0.00 0.0000 0.00000.00000  0.0000 0.0000   178
9768 9970 10  7 2 0  0.000170  0.001660   0.20858  2000  2000  2000    0 0  0.0000    0.00 0.0000 0.00000.00000  0.0000 0.0000   179
9768 9970 10  7 2 0  0.000170  0.001680   0.21896  2000  2000  2000    0 0  0.0000    0.00 0.0000 0.00000.00000  0.0000 0.0000   180
9764 9763 10  7 2 0  0.000081  0.001346   0.00605   410   420   420    0 0  0.0000    0.00 0.0000 0.00000.00000  0.0000 0.0000   181
9764 9763 10  7 2 0  0.000106  0.001336   0.00628   410   490   490    0 0  0.0000    0.00 0.0000 0.00000.00000  0.0000 0.0000   182
9764 9761 10  7 2 0  0.000270  0.002810   0.03422   410   490   490    0 0  0.0000    0.00 0.0000 0.00000.00000  0.0000 0.0000   183
9764 9761 10  7 3 0  0.000260  0.002820   0.03456   410   490   490    0 0  0.0000    0.00 0.0000 0.00000.00000  0.0000 0.0000   184
9763 9771 10  7 0 0  0.000470  0.005220   0.01406   410   490   490    0 0  0.0000    0.00 0.0000 0.00000.00000  0.0000 0.0000   185
9763 9771 10  7 0 0  0.000600  0.005250   0.01358   410   490   490    0 0  0.0000    0.00 0.0000 0.00000.00000  0.0000 0.0000   186
9762 9981 10  7 2 0  0.001910  0.010520   0.02008   410   490   490    0 0  0.0000    0.00 0.0000 0.00000.00000  0.0000 0.0000   187
9760 9984 10  7 2 0  0.000670  0.006100   0.04818   410   490   490    0 0  0.0000    0.00 0.0000 0.00000.00000  0.0000 0.0000   188
9999 9994 10  1 3 1  0.000430  0.034980   0.00000   240   312   336 9999 0  1.0000    0.00 0.0000 0.00000.00000  0.0000 0.0000   189
9998 9993 10  1 4 1  0.000520  0.048150   0.00000   240   312   336 9998 0  1.0000    0.00 0.0000 0.00000.00000  0.0000 0.0000   190
9997 9992 10  1 5 1  0.000220  0.048510   0.00000   240   312   336 9997 0  1.0000    0.00 0.0000 0.00000.00000  0.0000 0.0000   191
9996 9991 10  1 6 1  0.000480  0.036880   0.00000   240   312   336 9996 0  1.0000    0.00 0.0000 0.00000.00000  0.0000 0.0000   192
9995 9994 10  1 3 2  0.000090 -0.002000   0.00000   750   975  1050 9995 0  1.0266    0.00 0.8803 1.11970.01330  0.9717 1.0017   193
9995 9993 10  1 4 2  0.000090 -0.001610   0.00000   750   975  1050 9995 0  1.0266    0.00 0.8803 1.11970.01330  0.9717 1.0017   194
9995 9992 10  1 5 2  0.000060 -0.003280   0.00000   750   975  1050 9995 0  1.0266    0.00 0.8803 1.11970.01330  0.9717 1.0017   195
9995 9991 10  1 6 2  0.000070 -0.002350   0.00000   750   975  1050 9995 0  1.0266    0.00 0.8803 1.11970.01330  0.9717 1.0017   196
9990 9994 10  1 3 1  0.000070  0.018070   0.00000   750   825   900 9989 0  0.9524    0.00 0.0000 0.00000.00000  0.0000 0.0000   197
9990 9993 10  1 4 1  0.000070  0.017150   0.00000   750   825   900 9989 0  0.9524    0.00 0.0000 0.00000.00000  0.0000 0.0000   198
9990 9992 10  1 5 1  0.000110  0.019280   0.00000   750   825   900 9989 0  0.9524    0.00 0.0000 0.00000.00000  0.0000 0.0000   199
9990 9991 10  1 6 1  0.000090  0.018670   0.00000   750   825   900 9989 0  0.9524    0.00 0.0000 0.00000.00000  0.0000 0.0000   200
...
-999
LOSS ZONES FOLLOWS                                                  0 ITEMS
-99
INTERCHANGE DATA FOLLOWS                                            3 ITEMS
10 9907 NQ_500           0.0  10.00  Shangh  Shanghai                                                                              1
20 9793 JSSP_500         0.0  10.00  Jiangs  Jiangsu                                                                               2
30 9792 ZJWD_500         0.0  10.00  Zhejia  Zhejiang                                                                              3
-9
TIE LINES FOLLOWS                                                   0 ITEMS
-999
END OF DATA
